/*--------------------------------*- C++ -*----------------------------------*\
  =========                 |
  \\      /  F ield         | OpenFOAM: The Open Source CFD Toolbox
   \\    /   O peration     | Website:  https://openfoam.org
    \\  /    A nd           | Version:  8
     \\/     M anipulation  |
\*---------------------------------------------------------------------------*/
FoamFile
{
    version     2.0;
    format      ascii;
    class       volScalarField;
    object      T;
}
// * * * * * * * * * * * * * * * * * * * * * * * * * * * * * * * * * * * * * //

dimensions      [0 0 0 1 0 0 0];

internalField   uniform 290;

boundaryField
{
    inlet1
    {
      type  fixedValue;
      value  uniform 290;
    }
    inlet2
    {
      type  fixedValue;
      value  uniform 290;
    }
    outlet
    {
      type            inletOutlet;
      inletValue      $internalField;
      value           $internalField;
    }
    door
    {
      type            zeroGradient;
    }
    windowsmall
    {
      type            zeroGradient;
    }
    windowbig
    {
      type            fixedValue;
      value  uniform          327;
    }
    columns
    {
      type            zeroGradient;
    }
    ceiling
    {
        type            zeroGradient;
    }
    floor
    {
        type            zeroGradient;
    }
    wallwindow
    {
        type            zeroGradient;
    }
    walldoor
    {
        type            zeroGradient;
    }
    walloutside
    {
        type            zeroGradient;
    }
    wallinside
    {
        type            zeroGradient;
    }
    emission_surface
    {
        type            zeroGradient;
    }
    n_001
    {
        type            fixedValue;
        value           uniform 306.95;
    }
    n_002
    {
        type            fixedValue;
        value           uniform 306.95;
    }
    n_003
    {
        type            fixedValue;
        value           uniform 306.95;
    }
    n_004
    {
        type            fixedValue;
        value           uniform 306.95;
    }
    n_005
    {
        type            fixedValue;
        value           uniform 306.95;
    }
    n_006
    {
        type            fixedValue;
        value           uniform 306.95;
    }
}


// ************************************************************************* //
